52
XYZ file generated by orca_plot on BaseName=KXAS_Cu_II_H2O_APP_E2_opt
  C      -0.797476     -4.204880     -0.102534
  N       0.394358     -4.129457     -0.808129
  C      -1.059430     -2.904374      0.270141
  C       0.817468     -2.842846     -0.841687
  N      -0.050584     -2.068308     -0.190985
  C       4.275831     -0.046779     -0.465915
  N       4.149050     -0.609100      0.796039
  C       2.980321      0.218137     -0.857330
  C       2.836283     -0.676091      1.131666
  N       2.099842     -0.177227      0.140323
  C      -4.102766      0.633595      0.007671
  N      -3.891010      0.005078     -1.210842
  C      -2.854471      0.687596      0.589587
  C      -2.576700     -0.302008     -1.336731
  N      -1.918774      0.103236     -0.250781
  C      -0.076477      4.164606     -0.331611
  N       0.879704      4.000151      0.659719
  C      -0.479207      2.883406     -0.637983
  C       1.037418      2.679843      0.917841
  N       0.216946      1.971050      0.142276
  Cu      0.075136     -0.054247      0.078319
  C      -0.485655      5.495641     -0.861334
  H      -0.909618      6.133402     -0.070589
  H       0.365656      6.032553     -1.307087
  H      -1.248459      5.371856     -1.639398
  C      -1.531873     -5.480522      0.128761
  H      -0.921393     -6.202374      0.692664
  H      -2.445068     -5.290208      0.705447
  H      -1.824164     -5.956605     -0.819741
  C      -5.441462      1.100421      0.466016
  H      -5.868952      1.843440     -0.224543
  H      -6.155621      0.266631      0.546546
  H      -5.358302      1.568427      1.454279
  C       5.587767      0.173938     -1.137046
  H       6.234023      0.845251     -0.551013
  H       6.132129     -0.771447     -1.284158
  H       5.433911      0.630319     -2.122288
  H      -1.910196     -2.523884      0.824625
  H       1.727708     -2.515562     -1.332469
  H       2.638238      0.674774     -1.780282
  H       2.455709     -1.066615      2.069396
  H      -2.577079      1.109345      1.548832
  H      -2.151713     -0.808021     -2.197155
  H      -1.218670      2.569929     -1.365563
  H       1.739850      2.282814      1.642069
  H       1.385391      4.752854      1.121555
  H       4.920531     -0.918614      1.383325
  H       0.874693     -4.915968     -1.240073
  H      -4.608778     -0.195192     -1.904058
  O      -0.029629     -0.429136      2.595128
  H      -0.197092      0.213678      3.307531
  H      -0.388807     -1.270585      2.929471
